*Heading
** Job name: harmonic_analysis Model name: Static+Model with NLGEOM
** Generated by: Abaqus/CAE Learning Edition 2023
*Preprint, echo=NO, model=NO, history=NO, contact=NO
**
** PARTS
**
*Part, name=PART-1
*Node
      1,   -3.0480001,   -3.0480001,    3.0480001
      2,   -3.0480001,    3.0480001,    3.0480001
      3,  -9.14400005,    3.0480001,    3.0480001
      4,  -9.14400005,   -3.0480001,    3.0480001
      5,    3.0480001,   -3.0480001,    3.0480001
      6,    3.0480001,    3.0480001,    3.0480001
      7,   9.14400005,   -3.0480001,    3.0480001
      8,   9.14400005,    3.0480001,    3.0480001
      9,    3.0480001,    3.0480001,           0.
     10,    3.0480001,   -3.0480001,           0.
     11,   9.14400005,   -3.0480001,           0.
     12,   9.14400005,    3.0480001,           0.
     13,   -3.0480001,   -3.0480001,           0.
     14,   -3.0480001,    3.0480001,           0.
     15,  -9.14400005,    3.0480001,           0.
     16,  -9.14400005,   -3.0480001,           0.
     41,   -3.0480001,    3.0480001,   -3.0480001
     42,   9.14400005,    3.0480001,   -3.0480001
     43,    3.0480001,   -3.0480001,   -3.0480001
     44,  -9.14400005,   -3.0480001,   -3.0480001
** ... 734 like lines cut
*Element, type=S4
  1,   1,  49, 473,  84
  2,  49,  50, 474, 473
  3,  50,  51, 475, 474
  4,  51,  52, 476, 475
  5,  52,  53, 477, 476
  6,  53,  54, 478, 477
  7,  54,  55, 479, 478
  8,  55,  56, 480, 479
  9,  56,  57, 481, 480
 10,  57,   2,  58, 481
 11,  84, 473, 482,  83
 12, 473, 474, 483, 482
 13, 474, 475, 484, 483
 14, 475, 476, 485, 484
 15, 476, 477, 486, 485
 16, 477, 478, 487, 486
 17, 478, 479, 488, 487
 18, 479, 480, 489, 488
 19, 480, 481, 490, 489
 20, 481,  58,  59, 490
** ... 580 like lines cut
*Element, type=B31
601,   1,  49
602,  49,  50
603,  50,  51
604,  51,  52
605,  52,  53
606,  53,  54
607,  54,  55
608,  55,  56
609,  56,  57
610,  57,   2
611,  13, 175
612, 175, 176
613, 176, 177
614, 177, 178
615, 178, 179
616, 179, 180
617, 180, 181
618, 181, 182
619, 182, 183
620, 183,  14
** ... 260 like lines cut
*Nset, nset=WIRE-1-SET-1
   1,   2,   3,   4,   5,   6,   7,   8,   9,  10,  11,  12,  13,  14,  15,  16
  41,  42,  43,  44,  45,  46,  47,  48, 409, 410, 411, 412, 413, 414, 415, 416
 417, 418, 419, 420, 421, 422, 423, 424, 425, 426, 427, 428, 429, 430, 431, 432
 433, 434, 435, 436, 437, 438, 439, 440, 441, 442, 443, 444, 445, 446, 447, 448
 449, 450, 451, 452, 453, 454, 455, 456, 457, 458, 459, 460, 461, 462, 463, 464
 465, 466, 467, 468, 469, 470, 471, 472
*Elset, elset=WIRE-1-SET-1, generate
 801,  880,    1
*Nset, nset=WIRE-2-SET-1
   1,   2,   3,   4,   5,   6,   7,   8,   9,  10,  11,  12,  13,  14,  15,  16
  58,  59,  60,  61,  62,  63,  64,  65,  66,  67,  68,  69,  70,  71,  72,  73
  74,  75,  76,  77,  78,  79,  80,  81,  82,  83,  84,  94,  95,  96,  97,  98
  99, 100, 101, 102, 103, 104, 105, 106, 107, 108, 109, 110, 111, 112, 113, 114
 115, 116, 117, 118, 119, 120, 121, 122, 123, 124, 125, 126, 127, 128, 129, 130
 131, 132, 133, 134, 135, 136, 137, 138, 148, 149, 150, 151, 152, 153, 154, 155
 156, 157, 158, 159, 160, 161, 162, 163, 164, 165, 166, 167, 168, 169, 170, 171
 172, 173, 174, 184, 185, 186, 187, 188, 189, 190, 191, 192, 193, 194, 195, 196
 197, 198, 199, 200, 201, 202, 203, 204, 205, 206, 207, 208, 209, 210, 211, 212
 213, 214, 215, 216, 217, 218, 219, 220, 221, 222, 223, 224, 225, 226, 227, 228
*Elset, elset=WIRE-2-SET-1, generate
 641,  800,    1
*Nset, nset=WIRE-3-SET-1
   1,   2,   5,   6,   9,  10,  13,  14,  49,  50,  51,  52,  53,  54,  55,  56
  57,  85,  86,  87,  88,  89,  90,  91,  92,  93, 139, 140, 141, 142, 143, 144
 145, 146, 147, 175, 176, 177, 178, 179, 180, 181, 182, 183
*Elset, elset=WIRE-3-SET-1, generate
 601,  640,    1
*Nset, nset=SLAB
   1,   2,   3,   4,   5,   6,   7,   8,   9,  10,  11,  12,  13,  14,  15,  16
  49,  50,  51,  52,  53,  54,  55,  56,  57,  58,  59,  60,  61,  62,  63,  64
  65,  66,  67,  68,  69,  70,  71,  72,  73,  74,  75,  76,  77,  78,  79,  80
  81,  82,  83,  84,  85,  86,  87,  88,  89,  90,  91,  92,  93,  94,  95,  96
  97,  98,  99, 100, 101, 102, 103, 104, 105, 106, 107, 108, 109, 110, 111, 112
 113, 114, 115, 116, 117, 118, 119, 120, 121, 122, 123, 124, 125, 126, 127, 128
 129, 130, 131, 132, 133, 134, 135, 136, 137, 138, 139, 140, 141, 142, 143, 144
 145, 146, 147, 148, 149, 150, 151, 152, 153, 154, 155, 156, 157, 158, 159, 160
 161, 162, 163, 164, 165, 166, 167, 168, 169, 170, 171, 172, 173, 174, 175, 176
 177, 178, 179, 180, 181, 182, 183, 184, 185, 186, 187, 188, 189, 190, 191, 192
 193, 194, 195, 196, 197, 198, 199, 200, 201, 202, 203, 204, 205, 206, 207, 208
 209, 210, 211, 212, 213, 214, 215, 216, 217, 218, 219, 220, 221, 222, 223, 224
 225, 226, 227, 228, 473, 474, 475, 476, 477, 478, 479, 480, 481, 482, 483, 484
 485, 486, 487, 488, 489, 490, 491, 492, 493, 494, 495, 496, 497, 498, 499, 500
 501, 502, 503, 504, 505, 506, 507, 508, 509, 510, 511, 512, 513, 514, 515, 516
 517, 518, 519, 520, 521, 522, 523, 524, 525, 526, 527, 528, 529, 530, 531, 532
 533, 534, 535, 536, 537, 538, 539, 540, 541, 542, 543, 544, 545, 546, 547, 548
 549, 550, 551, 552, 553, 554, 555, 556, 557, 558, 559, 560, 561, 562, 563, 564
 565, 566, 567, 568, 569, 570, 571, 572, 573, 574, 575, 576, 577, 578, 579, 580
 581, 582, 583, 584, 585, 586, 587, 588, 589, 590, 591, 592, 593, 594, 595, 596
** ... 23 like lines cut
*Elset, elset=SLAB, generate
   1,  600,    1
*Nset, nset=COLUMN
   1,   2,   3,   4,   5,   6,   7,   8,   9,  10,  11,  12,  13,  14,  15,  16
  41,  42,  43,  44,  45,  46,  47,  48, 409, 410, 411, 412, 413, 414, 415, 416
 417, 418, 419, 420, 421, 422, 423, 424, 425, 426, 427, 428, 429, 430, 431, 432
 433, 434, 435, 436, 437, 438, 439, 440, 441, 442, 443, 444, 445, 446, 447, 448
 449, 450, 451, 452, 453, 454, 455, 456, 457, 458, 459, 460, 461, 462, 463, 464
 465, 466, 467, 468, 469, 470, 471, 472
*Elset, elset=COLUMN, generate
 801,  880,    1
*Nset, nset=BEAM
   1,   2,   3,   4,   5,   6,   7,   8,   9,  10,  11,  12,  13,  14,  15,  16
  49,  50,  51,  52,  53,  54,  55,  56,  57,  58,  59,  60,  61,  62,  63,  64
  65,  66,  67,  68,  69,  70,  71,  72,  73,  74,  75,  76,  77,  78,  79,  80
  81,  82,  83,  84,  85,  86,  87,  88,  89,  90,  91,  92,  93,  94,  95,  96
  97,  98,  99, 100, 101, 102, 103, 104, 105, 106, 107, 108, 109, 110, 111, 112
 113, 114, 115, 116, 117, 118, 119, 120, 121, 122, 123, 124, 125, 126, 127, 128
 129, 130, 131, 132, 133, 134, 135, 136, 137, 138, 139, 140, 141, 142, 143, 144
 145, 146, 147, 148, 149, 150, 151, 152, 153, 154, 155, 156, 157, 158, 159, 160
 161, 162, 163, 164, 165, 166, 167, 168, 169, 170, 171, 172, 173, 174, 175, 176
 177, 178, 179, 180, 181, 182, 183, 184, 185, 186, 187, 188, 189, 190, 191, 192
 193, 194, 195, 196, 197, 198, 199, 200, 201, 202, 203, 204, 205, 206, 207, 208
 209, 210, 211, 212, 213, 214, 215, 216, 217, 218, 219, 220, 221, 222, 223, 224
 225, 226, 227, 228
*Elset, elset=BEAM, generate
 601,  800,    1
*Elset, elset=_I2, internal
 601, 602, 603, 604, 605, 606, 607, 608, 609, 610, 611, 612, 613, 614, 615, 616
 617, 618, 619, 620, 621, 622, 623, 624, 625, 626, 627, 628, 629, 630, 631, 632
 633, 634, 635, 636, 637, 638, 639, 640, 641, 642, 643, 644, 645, 646, 647, 648
 649, 650, 681, 682, 683, 684, 685, 686, 687, 688, 689, 690, 721, 722, 723, 724
 725, 726, 727, 728, 729, 730, 761, 762, 763, 764, 765, 766, 767, 768, 769, 770
*Elset, elset=_I3, internal
 651, 652, 653, 654, 655, 656, 657, 658, 659, 660, 661, 662, 663, 664, 665, 666
 667, 668, 669, 670, 671, 672, 673, 674, 675, 676, 677, 678, 679, 680, 691, 692
 693, 694, 695, 696, 697, 698, 699, 700, 701, 702, 703, 704, 705, 706, 707, 708
 709, 710, 711, 712, 713, 714, 715, 716, 717, 718, 719, 720, 731, 732, 733, 734
 735, 736, 737, 738, 739, 740, 741, 742, 743, 744, 745, 746, 747, 748, 749, 750
 751, 752, 753, 754, 755, 756, 757, 758, 759, 760, 771, 772, 773, 774, 775, 776
 777, 778, 779, 780, 781, 782, 783, 784, 785, 786, 787, 788, 789, 790, 791, 792
 793, 794, 795, 796, 797, 798, 799, 800
** Section: Section-1-SLAB
*Shell Section, elset=SLAB, material=CONCRETE
0.127, 5
** Section: Section-2-_I2  Profile: Profile-1
*Beam Section, elset=_I2, material=STEEL, temperature=GRADIENTS, section=I
0.205, 0.41, 0.18, 0.18, 0.016, 0.016, 0.0097
1.,0.,0.
** Section: Section-3-_I3  Profile: Profile-2
*Beam Section, elset=_I3, material=STEEL, temperature=GRADIENTS, section=I
0.205, 0.41, 0.18, 0.18, 0.016, 0.016, 0.0097
0.,1.,0.
** Section: Section-4-COLUMN  Profile: Profile-3
*Beam Section, elset=COLUMN, material=STEEL, temperature=GRADIENTS, section=I
0.205, 0.41, 0.18, 0.18, 0.016, 0.016, 0.0097
1.,0.,0.
*End Part
**  
**
** ASSEMBLY
**
*Assembly, name=Assembly
**  
*Instance, name=PART-1-1, part=PART-1
*End Instance
**  
*Nset, nset=BC_fixed, instance=PART-1-1, generate
 41,  48,   1
*Nset, nset="harmonic response node", instance=PART-1-1
 748,
*Elset, elset="_Harmonis Load surface_SPOS", internal, instance=PART-1-1, generate
 301,  400,    1
*Surface, type=ELEMENT, name="Harmonis Load surface"
"_Harmonis Load surface_SPOS", SPOS
*Elset, elset="_Live_load Surface_SPOS", internal, instance=PART-1-1, generate
   1,  600,    1
*Surface, type=ELEMENT, name="Live_load Surface"
"_Live_load Surface_SPOS", SPOS
*End Assembly
** 
** MATERIALS
** 
*Material, name=CONCRETE
*Density
2300.,
*Elastic
 3e+10, 0.18
*Material, name=STEEL
*Density
7850.,
*Elastic
 2e+11, 0.3
** 
** BOUNDARY CONDITIONS
** 
** Name: column_fixed Type: Symmetry/Antisymmetry/Encastre
*Boundary
BC_fixed, ENCASTRE
** ----------------------------------------------------------------
** 
** STEP: Live_Dead_Earthquake_Loads
** 
*Step, name=Live_Dead_Earthquake_Loads, nlgeom=YES
*Static
1., 1., 1e-05, 1.
** 
** LOADS
** 
** Name: Dead_load   Type: Gravity
*Dload, op=NEW
, GRAV, 9.81, 0., 0., -1.
** Name: Earthquake_Load   Type: Gravity
*Dload, op=NEW
, GRAV, 1.962, 0., 1., 0.
** Name: live_load   Type: Pressure
*Dsload
"Live_load Surface", P, 2394.01
** 
** OUTPUT REQUESTS
** 
*Restart, write, frequency=0
** 
** FIELD OUTPUT: F-Output-1
** 
*NODE PRINT ,NSET = BC_FIXED, TOTALS=YES, SUMMARY=YES
RF
*Output, field
*Node Output
CF, RF, U
*Element Output, directions=YES
S, 
** 
** HISTORY OUTPUT: H-Output-1
** 
*Output, history
*Node Output, nset=BC_fixed
RF1, RF2, RF3, RM1, RM2, RM3
*End Step
** ----------------------------------------------------------------
** 
** STEP: Modal Analysis
** 
*Step, name="Modal Analysis", nlgeom=NO, perturbation
*Frequency, eigensolver=Lanczos, sim, acoustic coupling=on, normalization=mass
50, , , , , 
** 
** OUTPUT REQUESTS
** 
*Restart, write, frequency=0
** 
** FIELD OUTPUT: F-Output-2
** 
*Output, field
*Node Output
U, 
** 
** HISTORY OUTPUT: H-Output-2
** 
*Output, history
*Energy Output
ALLKE, ALLSE
*End Step
** ----------------------------------------------------------------
** 
** STEP: Harmonic Analysis
** 
*Step, name="Harmonic Analysis", nlgeom=NO, perturbation
*Steady State Dynamics
0., 25., 20, 3.
*Modal Damping
1, 500, 0.02
** 
** LOADS
** 
** Name: pressure_1pa   Type: Pressure
*Dsload, real
"Harmonis Load surface", P, 1.
** 
** OUTPUT REQUESTS
** 
** 
** FIELD OUTPUT: F-Output-3
** 
*Output, field
*Node Output
U, 
** 
** HISTORY OUTPUT: H-Output-3
** 
*Output, history
*Node Output, nset="harmonic response node"
U1, U2, U3, UR1, UR2, UR3
*End Step
